Circuit: * C:\Users\HP\Desktop\sem6\arch\project\Draft1.asc

Fatal Error: This circuit does not contain a node other than node "0" (GND)
