Circuit: * C:\Users\HP\Desktop\sem6\arch\project\FinalProj-VLSI.asc

Direct Newton iteration for .op point succeeded.

Date: Tue Mar 14 01:28:56 2023
Total elapsed time: 0.522 seconds.

tnom = 27
temp = 27
method = modified trap
totiter = 16168
traniter = 16136
tranpoints = 6646
accept = 5626
rejected = 1020
matrix size = 123
fillins = 2
solver = Normal
Thread vector: 20.4/16.6[2] 2.7/1.8[2] 1.7/0.9[2] 0.4/1.0[1]  2592/500
Matrix Compiler1: 18.67 KB object code size  2.4/1.1/[0.7]
Matrix Compiler2: 15.53 KB object code size  1.0/1.1/[0.5]

