Circuit: * C:\Users\HP\Documents\pso_project\proposed.asc

Direct Newton iteration failed to find .op point.  (Use ".option noopiter" to skip.)
Starting Gmin stepping
Gmin = 10
Gmin = 1.07374
Gmin = 0.115292
Gmin = 0.0123794
Gmin = 0.00132923
Gmin = 0.000142725
Gmin = 1.5325e-005
Gmin = 1.6455e-006
Gmin = 1.76685e-007
Gmin = 1.89714e-008
Gmin = 2.03704e-009
Gmin = 2.18725e-010
Gmin = 2.34854e-011
Gmin = 2.52173e-012
Gmin = 2.70769e-013
Gmin = 0
Gmin stepping succeeded in finding the operating point.


t1: time=1.0005e-008 at 1.0005e-008
t2: time=1.00501e-008 at 1.00501e-008
clktoq: t2-t1=4.51385e-011
power: AVG(-v(vdd)*i(v1))=2.55045e-007 FROM 0 TO 1e-006
variable: power*clktoq=1.15123e-017
delay: t2-t1=4.51385e-011


Date: Wed Apr 19 19:08:47 2023
Total elapsed time: 3.170 seconds.

tnom = 27
temp = 27
method = modified trap
totiter = 28789
traniter = 28374
tranpoints = 10482
accept = 8261
rejected = 2221
matrix size = 123
fillins = 2
solver = Normal
Matrix Compiler1: 18.74 KB object code size  5.0/2.9/[1.2]
Matrix Compiler2: 15.50 KB object code size  3.2/4.2/[1.6]

