Circuit: * C:\Users\HP\Documents\pso_project\s2cff.asc

Direct Newton iteration for .op point succeeded.

t1: time=1.0005e-008 at 1.0005e-008
t2: time=1.00504e-008 at 1.00504e-008
clktoq: t2-t1=4.54398e-011
power: AVG(-v(vdd)*i(v1))=5.09498e-007 FROM 0 TO 2e-007
variable: power*clktoq=2.31515e-017
delay: t2-t1=4.54398e-011


Date: Wed Apr 19 19:06:44 2023
Total elapsed time: 0.394 seconds.

tnom = 27
temp = 27
method = modified trap
totiter = 7129
traniter = 7095
tranpoints = 2392
accept = 2052
rejected = 340
matrix size = 115
fillins = 10
solver = Normal
Thread vector: 25.2/15.8[2] 5.7/2.3[2] 1.6/1.4[2] 0.6/1.1[1]  2592/500
Matrix Compiler1: 17.63 KB object code size  3.1/1.6/[1.2]
Matrix Compiler2: 14.53 KB object code size  1.1/1.6/[0.6]

