Circuit: * C:\Users\HP\Documents\pso_project\SPC-18T.asc

Direct Newton iteration for .op point succeeded.

t1: time=1.0005e-008 at 1.0005e-008
t2: time=6.01058e-008 at 6.01058e-008
clktoq: t2-t1=5.01008e-008

Measurement "power" FAIL'ed

Measurement "variable" FAIL'ed
delay: t2-t1=5.01008e-008


Date: Wed Apr 19 19:11:55 2023
Total elapsed time: 0.583 seconds.

tnom = 27
temp = 27
method = modified trap
totiter = 13704
traniter = 13671
tranpoints = 4889
accept = 3912
rejected = 977
matrix size = 87
fillins = 6
solver = Normal
Matrix Compiler1: 13.04 KB object code size  1.8/1.0/[0.5]
Matrix Compiler2: 11.00 KB object code size  0.9/1.2/[0.4]

