Circuit: * C:\Users\HP\Documents\pso_project\TGFF.asc

Direct Newton iteration failed to find .op point.  (Use ".option noopiter" to skip.)
Starting Gmin stepping
Gmin = 10
Gmin = 1.07374
Gmin = 0.115292
Gmin = 0.0123794
Gmin = 0.00132923
Gmin = 0.000142725
Gmin = 1.5325e-005
Gmin = 1.6455e-006
Gmin = 1.76685e-007
Gmin = 1.89714e-008
Gmin = 2.03704e-009
Gmin = 2.18725e-010
Gmin = 2.34854e-011
Gmin = 2.52173e-012
Gmin = 2.70769e-013
Gmin = 0
Gmin stepping succeeded in finding the operating point.


t1: time=1.0005e-008 at 1.0005e-008
t2: time=1.01803e-008 at 1.01803e-008
clktoq: t2-t1=1.7533e-010
power: AVG(-v(vdd)*i(v2))=6.90563e-007 FROM 0 TO 2e-007
variable: power*clktoq=1.21077e-016
delay: t2-t1=1.7533e-010


Date: Wed Apr 19 19:14:08 2023
Total elapsed time: 0.579 seconds.

tnom = 27
temp = 27
method = modified trap
totiter = 7904
traniter = 7496
tranpoints = 2462
accept = 2108
rejected = 354
matrix size = 112
fillins = 0
solver = Normal
Thread vector: 39.5/30.7[2] 4.7/11.8[1] 1.8/3.0[1] 0.8/33.4[1]  2592/500
Matrix Compiler1: 18.12 KB object code size  3.4/1.8/[1.1]
Matrix Compiler2: 14.14 KB object code size  1.9/2.3/[1.0]

