Circuit: * C:\Users\HP\Documents\pso_project\proposed.asc

Direct Newton iteration for .op point succeeded.

t1: time=1.0005e-008 at 1.0005e-008
t2: time=6.01304e-008 at 6.01304e-008
clktoq: t2-t1=5.01254e-008
power: AVG(-v(vdd)*i(v1))=1.94938e-007 FROM 0 TO 1e-006
variable: power*clktoq=9.77134e-015
delay: t2-t1=5.01254e-008


Date: Wed Apr 19 19:25:13 2023
Total elapsed time: 1.545 seconds.

tnom = 27
temp = 27
method = modified trap
totiter = 27301
traniter = 27272
tranpoints = 10203
accept = 8038
rejected = 2165
matrix size = 123
fillins = 2
solver = Normal
Thread vector: 267.6/151.1[2] 8.0/3.8[2] 5.5/2.5[2] 47.1/410.0[1]  2592/500
Matrix Compiler1:    1027 opcodes  4.0/[3.1]/63.1
Matrix Compiler2: off  [2.7]/12.0/3.0

