Circuit: * C:\Users\HP\Documents\pso_project\s2cff.asc

Direct Newton iteration for .op point succeeded.

t1: time=1.0005e-008 at 1.0005e-008
t2: time=6.00921e-008 at 6.00921e-008
clktoq: t2-t1=5.00871e-008
power: AVG(-v(vdd)*i(v1))=3.49545e-007 FROM 0 TO 2e-007
variable: power*clktoq=1.75077e-014
delay: t2-t1=5.00871e-008


Date: Wed Apr 19 23:05:08 2023
Total elapsed time: 0.461 seconds.

tnom = 27
temp = 27
method = modified trap
totiter = 6797
traniter = 6761
tranpoints = 2324
accept = 1996
rejected = 328
matrix size = 115
fillins = 10
solver = Normal
Thread vector: 48.9/27.8[2] 11.1/9.0[2] 4.5/12.9[1] 1.0/42.0[1]  2592/500
Matrix Compiler1: 17.63 KB object code size  4.1/2.3/[1.5]
Matrix Compiler2: 14.53 KB object code size  1.7/3.5/[1.1]

