Circuit: * C:\Users\HP\Documents\pso_project\SPC-18T.asc

Direct Newton iteration for .op point succeeded.

t1: time=1.0005e-008 at 1.0005e-008
t2: time=1.00729e-008 at 1.00729e-008
clktoq: t2-t1=6.78943e-011

Measurement "power" FAIL'ed

Measurement "variable" FAIL'ed
delay: t2-t1=6.78943e-011


Date: Wed Apr 19 19:37:48 2023
Total elapsed time: 0.577 seconds.

tnom = 27
temp = 27
method = modified trap
totiter = 6830
traniter = 6797
tranpoints = 2330
accept = 2015
rejected = 315
matrix size = 87
fillins = 6
solver = Normal
Matrix Compiler1: 13.04 KB object code size  2.8/1.8/[1.0]
Matrix Compiler2: 11.00 KB object code size  1.2/1.9/[0.7]

