Circuit: * C:\Users\HP\Documents\pso_project\TCFF.asc

WARNING: Node N007 is floating.

Direct Newton iteration for .op point succeeded.

t1: time=5.015e-009 at 5.015e-009
t2: time=1.00523e-008 at 1.00523e-008
clktoq: t2-t1=5.03732e-009
power: AVG(-v(vdd)*i(v2))=5.38134e-008 FROM 0 TO 3e-008
variable: power*clktoq=2.71075e-016
delay: t2-t1=5.03732e-009


Date: Wed Apr 19 18:58:09 2023
Total elapsed time: 0.535 seconds.

tnom = 27
temp = 27
method = modified trap
totiter = 3211
traniter = 3178
tranpoints = 1289
accept = 1228
rejected = 61
matrix size = 101
fillins = 8
solver = Normal
Thread vector: 152.2/52.0[2] 6.0/4.6[2] 3.2/9.6[1] 1.1/70.1[1]  2592/500
Matrix Compiler1: 16.89 KB object code size  5.4/2.6/[1.9]
Matrix Compiler2: 12.75 KB object code size  1.8/4.2/[1.3]

