Circuit: * C:\Users\HP\Documents\pso_project\TGFF.asc

Direct Newton iteration for .op point succeeded.

t1: time=1.0005e-008 at 1.0005e-008
t2: time=1.01874e-008 at 1.01874e-008
clktoq: t2-t1=1.82441e-010
power: AVG(-v(vdd)*i(v2))=6.80537e-007 FROM 0 TO 2e-007
variable: power*clktoq=1.24158e-016
delay: t2-t1=1.82441e-010


Date: Wed Apr 19 19:48:18 2023
Total elapsed time: 0.801 seconds.

tnom = 27
temp = 27
method = modified trap
totiter = 7542
traniter = 7501
tranpoints = 2413
accept = 2065
rejected = 348
matrix size = 112
fillins = 4
solver = Normal
Matrix Compiler1:    1003 opcodes  190.7/[5.5]/36.8
Matrix Compiler2: 14.21 KB object code size  3.6/3.9/[1.3]

